==========================================================================
Command line: 
..\..\bin\gsflow_test  pipestem.control

number of command line words: 2

Executable: ..\..\bin\gsflow_test

==========================================================================
Control File: pipestem.control
 WARNING, control parameter not used: cbh_binary_flag, ignored
 WARNING, control parameter not used: aniOutON_OFF, ignored
 WARNING, control parameter not used: ani_output_file, ignored
 WARNING, control parameter not used: naniOutVars, ignored
 WARNING, control parameter not used: aniOutVar_names, ignored
 WARNING, control parameter not used: dispGraphsBuffSize, ignored
 WARNING, control parameter not used: ndispGraphs, ignored
 WARNING, control parameter not used: dispVar_element, ignored
 WARNING, control parameter not used: dispVar_names, ignored
 WARNING, control parameter not used: dispVar_plot, ignored
 WARNING, control parameter not used: initial_deltat, ignored
 WARNING, control parameter not used: stats_output_file, ignored
==========================================================================

                          U.S. Geological Survey
        Coupled Groundwater and Surface-water FLOW model (GSFLOW)
                         Version: 2.4.0 09/01/2024

    An integration of the Precipitation-Runoff Modeling System (PRMS)
    and the Modular Groundwater Model (MODFLOW-NWT and MODFLOW-2005)



               Precipitation-Runoff Modeling System (PRMS)
                       Version 6.0.0 09/01/2024

--------------------------------------------------------------------
        Process            Available Modules
--------------------------------------------------------------------
  Basin Definition: basin
    Cascading Flow: cascade
  Time Series Data: obs, water_use_read, dynamic_param_read
                    dynamic_soil_param_read
   Potet Solar Rad: soltab
  Temperature Dist: temp_1sta, temp_laps, temp_dist2, climate_hru,
                    temp_map
       Precip Dist: precip_1sta, precip_laps, precip_dist2,
                    climate_hru, precip_map
Temp & Precip Dist: xyz_dist, ide_dist
    Solar Rad Dist: ccsolrad, ddsolrad, climate_hru
Transpiration Dist: transp_tindex, climate_hru, transp_frost
      Potential ET: potet_hamon, potet_jh, potet_pan, climate_hru,
                    potet_hs, potet_pt, potet_pm, potet_pm_sta
      Interception: intcp
Snow & Glacr Dynam: snowcomp, glacr_melt
    Surface Runoff: srunoff_smidx, srunoff_carea
         Soil Zone: soilzone, soilzone_ag
       Groundwater: gwflow
Streamflow Routing: strmflow, strmflow_in_out, muskingum,
                    muskingum_lake, muskingum_mann, segment_to_hru
Streamflow Charact: strmflow_character
Stream Temperature: stream_temp
    Output Summary: basin_sum, subbasin, map_results, prms_summary,
                    nhru_summary, nsub_summary, water_balance
                    basin_summary, nsegment_summary, statvar_out
     Preprocessing: write_climate_hru, frost_date
--------------------------------------------------------------------

Github Commit Hash b7b217f master branch

Execution start date and time (yyyy/mm/dd hh:mm:ss) 2024/08/27 16:28:20


==========================================================================
Please give careful consideration to fixing all ERROR and WARNING messages
==========================================================================


--------------------------------------------------------------------
    Active modules listed in the order in which they are called
--------------------------------------------------------------------
        Process                    Module         Version Date
==============================================================
PRMS Computation Order          gsflow_prms         2024-09-01
Read Control File               read_control_file   2024-08-01
Read Parameter File             read_parameter_file 2024-08-27
Read Data File                  read_data_file      2023-06-02
Basin Definition                basin               2024-08-09
Common States and Fluxes        climateflow         2024-08-09
Potential Solar Radiation       soltab              2024-01-22
Time Series Data                obs                 2023-11-01
Timestep Control                prms_time           2023-11-01
Temperature Distribution        climate_hru         2024-08-09
Precipitation Distribution      climate_hru         2024-08-09
Solar Radiation Distribution    ddsolrad            2023-10-04
Transpiration Distribution      transp_tindex       2023-11-01
Potential Evapotranspiration    potet_jh            2021-08-13
Canopy Interception             intcp               2024-04-04
Snow Dynamics                   snowcomp            2024-04-30
Surface Runoff                  srunoff_smidx       2024-04-04
Soilzone Computations           soilzone            2024-06-20
Groundwater                     gwflow              2024-05-30
Streamflow Routing Init         routing             2024-08-13
Streamflow Routing              muskingum           2023-11-01
Output Summary                  basin_sum           2024-04-30
Water Balance Computations      water_balance       2024-04-04
Output Summary                  nhru_summary        2024-04-04
Statistics Variables Output     statvar_out         2021-09-08
Output Summary                  prms_summary        2024-04-30
WARNING, parameter: azrh is ignored as it is not used
WARNING, parameter: hru_lon is ignored as it is not used
WARNING, parameter: hru_segment_nhm is ignored as it is not used
WARNING, parameter: hru_x is ignored as it is not used
WARNING, parameter: hru_y is ignored as it is not used
WARNING, parameter: mann_n is ignored as it is not used
WARNING, parameter: nhm_deplcrv is ignored as it is not used
WARNING, parameter: nhm_id is ignored as it is not used
WARNING, parameter: nhm_seg is ignored as it is not used
WARNING, parameter: poi_type is ignored as it is not used
WARNING, parameter: seg_cum_area is ignored as it is not used
WARNING, parameter: seg_depth is ignored as it is not used
WARNING, parameter: seg_elev is ignored as it is not used
WARNING, parameter: seg_lat is ignored as it is not used
WARNING, parameter: seg_length is ignored as it is not used
WARNING, parameter: seg_slope is ignored as it is not used
WARNING, parameter: seg_width is ignored as it is not used
WARNING, parameter: tmax_cbh_adj is ignored as it is not used
WARNING, parameter: tosegment_nhm is ignored as it is not used
WARNING, parameter: width_alpha is ignored as it is not used
WARNING, parameter: width_m is ignored as it is not used
==============================================================

Using Control File: pipestem.control

Using Parameter File: pipestem.param

Writing var_save_file: prms_ic.out

Writing PRMS Water Budget File: pipestem.out
  
 WARNING, parameter: ppt_zero_thresh is not specified
          Set to default value:  0.0000000E+00
 WARNING, parameter: epan_coef is not specified
          Set to default value:   1.000000    
 WARNING, parameter: tmax_cbh_adj_offset is not specified
          Set to default value:  0.0000000E+00
 WARNING, parameter: pref_flow_infil_frac is not specified
          Set to default value:  -1.000000    
 WARNING, parameter: obsout_segment is not specified
          Set to default value:           0

Simulation time period: 1980/10/01 - 2016/09/30

==========================================================================


                          =========================
                          Normal completion of PRMS
                          =========================


Execution start date and time (yyyy/mm/dd hh:mm:ss) 2024/08/27 16:28:20


Execution end   date and time (yyyy/mm/dd hh:mm:ss) 2024/08/27 16:28:21

Execution elapsed time    0 minutes  1.34 seconds

